Carbon_emission/Feeders/8500-Node/IEEE8500_Power_seq_kVA.txt

SYMMETRICAL COMPONENT POWERS BY CIRCUIT ELEMENT (first 3 phases)                                     Excess Power

Element                     Term    P1(kW)   Q1(kvar)       P2         Q2      P0      Q0       P_Norm      Q_Norm     P_Emerg    Q_Emerg

"Vsource.SOURCE"             1     2543.4     -385.8        0.0        0.0    -0.0     0.0
"Vsource.SOURCE"             2        0.0        0.0        0.0        0.0     0.0     0.0
"Line.HVMV_SUB_CONNECTOR"    1    -2548.4      344.2        1.0       -1.8     0.8    -0.8        0.0        0.0        0.0        0.0
"Line.HVMV_SUB_CONNECTOR"    2     2548.4     -344.2       -1.0        1.8    -0.8     0.8
"Line.LN5502549-1"           1        0.0        0.0        0.0        0.0     0.0     0.0        0.0        0.0        0.0        0.0
"Line.LN5502549-1"           2        0.0        0.0        0.0        0.0     0.0     0.0
"Line.LN6259988-1"           1        0.0        0.0        0.0        0.0     0.0     0.0        0.0        0.0        0.0        0.0
"Line.LN6259988-1"           2        0.0        0.0        0.0        0.0     0.0     0.0
"Line.LN6077796-1"           1        0.0        0.0        0.0        0.0     0.0     0.0        0.0        0.0        0.0        0.0
"Line.LN6077796-1"           2        0.0        0.0        0.0        0.0     0.0     0.0
"Line.LN5835135-2"           1        0.0        0.0        0.0        0.0     0.0     0.0        0.0        0.0        0.0        0.0
"Line.LN5835135-2"           2        0.0        0.0        0.0        0.0     0.0     0.0
"Line.LN5896826-1"           1        0.0        0.0        0.0        0.0     0.0     0.0        0.0        0.0        0.0        0.0
"Line.LN5896826-1"           2        0.0        0.0        0.0        0.0     0.0     0.0
"Line.LN5714038-1"           1        0.0        0.0        0.0        0.0     0.0     0.0        0.0        0.0        0.0        0.0
"Line.LN5714038-1"           2        0.0        0.0        0.0        0.0     0.0     0.0
"Line.LN5653457-1"           1      358.8      102.6       -3.5       -3.2     5.7    -1.8        0.0        0.0        0.0        0.0
"Line.LN5653457-1"           2     -358.7     -102.6        3.5        3.2    -5.7     1.8
"Line.LN5835173-1"           1      501.8      138.2       -3.7       -1.6     5.0     0.8        0.0        0.0        0.0        0.0
"Line.LN5835173-1"           2     -501.8     -138.2        3.7        1.6    -5.0    -0.7
"Line.LN6321415-1"           1        0.0        0.0        0.0        0.0     0.0     0.0        0.0        0.0        0.0        0.0
"Line.LN6321415-1"           2        0.0        0.0        0.0        0.0     0.0     0.0
"Line.LN5565092-1"           1        0.0        0.0        0.0        0.0     0.0     0.0        0.0        0.0        0.0        0.0
"Line.LN5565092-1"           2        0.0        0.0        0.0        0.0     0.0     0.0
"Line.LN6073648-1"           1        0.0        0.0        0.0        0.0     0.0     0.0        0.0        0.0        0.0        0.0
"Line.LN6073648-1"           2        0.0        0.0        0.0        0.0     0.0     0.0
"Line.LN5774457-1"           1      311.3       90.7        2.6       -2.5    -0.9    -3.9        0.0        0.0        0.0        0.0
"Line.LN5774457-1"           2     -311.3      -90.7       -2.6        2.5     0.9     3.9
"Line.LN5534966-3"           1        0.0        0.0        0.0        0.0     0.0     0.0        0.0        0.0        0.0        0.0
"Line.LN5534966-3"           2        0.0        0.0        0.0        0.0     0.0     0.0
"Line.LN5859996-1"           1        0.0        0.0        0.0        0.0     0.0     0.0        0.0        0.0        0.0        0.0
"Line.LN5859996-1"           2        0.0        0.0        0.0        0.0     0.0     0.0
"Line.LN6138610-2"           1     1294.6      371.7       11.0       -5.3    -3.3   -10.4        0.0        0.0        0.0        0.0
"Line.LN6138610-2"           2    -1294.2     -371.5      -11.0        5.3     3.3    10.4
"Line.LN6258435-3"           1        0.0        0.0        0.0        0.0     0.0     0.0        0.0        0.0        0.0        0.0
"Line.LN6258435-3"           2        0.0        0.0        0.0        0.0     0.0     0.0
"Line.LN5804790-1"           1        0.0        0.0        0.0        0.0     0.0     0.0        0.0        0.0        0.0        0.0
"Line.LN5804790-1"           2        0.0        0.0        0.0        0.0     0.0     0.0
"Line.LN6900591-14"          1        0.0        0.0        0.0        0.0     0.0     0.0        0.0        0.0        0.0        0.0
"Line.LN6900591-14"          2        0.0        0.0        0.0        0.0     0.0     0.0
"Line.LN6409873-1"           1        0.0        0.0        0.0        0.0     0.0     0.0        0.0        0.0        0.0        0.0
"Line.LN6409873-1"           2        0.0        0.0        0.0        0.0     0.0     0.0
"Line.LN6014135-1"           1        0.0        0.0        0.0        0.0     0.0     0.0        0.0        0.0        0.0        0.0
"Line.LN6014135-1"           2        0.0        0.0        0.0        0.0     0.0     0.0
"Line.LN6077784-1"           1      729.9      211.6        0.4       -6.1     4.3    -6.5        0.0        0.0        0.0        0.0
"Line.LN6077784-1"           2     -729.8     -211.6       -0.3        6.1    -4.3     6.5
"Line.LN5744338-1"           1        0.0        0.0        0.0        0.0     0.0     0.0        0.0        0.0        0.0        0.0
"Line.LN5744338-1"           2        0.0        0.0        0.0        0.0     0.0     0.0
"Line.LN6991381-4"           1        0.0        0.0        0.0        0.0     0.0     0.0        0.0        0.0        0.0        0.0
"Line.LN6991381-4"           2        0.0        0.0        0.0        0.0     0.0     0.0
"Line.LN5774480-1"           1        0.0        0.0        0.0        0.0     0.0     0.0        0.0        0.0        0.0        0.0
"Line.LN5774480-1"           2        0.0        0.0        0.0        0.0     0.0     0.0
"Line.LN5986938-3"           1        0.0        0.0        0.0        0.0     0.0     0.0        0.0        0.0        0.0        0.0
"Line.LN5986938-3"           2        0.0        0.0        0.0        0.0     0.0     0.0
"Line.LN5894230-1"           1        0.0        0.0        0.0        0.0     0.0     0.0        0.0        0.0        0.0        0.0
"Line.LN5894230-1"           2        0.0        0.0        0.0        0.0     0.0     0.0
"Line.LN5683858-3"           1       17.5        5.3       -0.1       -0.1     0.3    -0.0        0.0        0.0        0.0        0.0
"Line.LN5683858-3"           2      -17.5       -5.3        0.1        0.1    -0.3     0.0
"Line.LN5920279-5"           1    -3870.1     2467.2       -3.1       -6.8    -7.2   -29.3        0.0        0.0        0.0        0.0
"Line.LN5920279-5"           2     3870.5    -2466.2        3.1        6.8     7.2    29.4
"Line.LN6439600-1"           1        0.0        0.0        0.0        0.0     0.0     0.0        0.0        0.0        0.0        0.0
"Line.LN6439600-1"           2        0.0        0.0        0.0        0.0     0.0     0.0
"Line.LN5589097-1"           1        0.0        0.0        0.0        0.0     0.0     0.0        0.0        0.0        0.0        0.0
"Line.LN5589097-1"           2        0.0        0.0        0.0        0.0     0.0     0.0
"Line.LN5651975-1"           1      420.6      123.4        8.1       -1.7    -5.3    -6.2        0.0        0.0        0.0        0.0
"Line.LN5651975-1"           2     -420.5     -123.4       -8.1        1.7     5.3     6.3
"Line.LN5865236-1"           1        0.0        0.0        0.0        0.0     0.0     0.0        0.0        0.0        0.0        0.0
"Line.LN5865236-1"           2        0.0        0.0        0.0        0.0     0.0     0.0
"Line.LN5593232-1"           1        0.0        0.0        0.0        0.0     0.0     0.0        0.0        0.0        0.0        0.0
"Line.LN5593232-1"           2        0.0        0.0        0.0        0.0     0.0     0.0
"Line.LN5740283-1"           1        0.0        0.0        0.0        0.0     0.0     0.0        0.0        0.0        0.0        0.0
"Line.LN5740283-1"           2        0.0        0.0        0.0        0.0     0.0     0.0
"Line.LN6106559-1"           1        0.0        0.0        0.0        0.0     0.0     0.0        0.0        0.0        0.0        0.0
"Line.LN6106559-1"           2        0.0        0.0        0.0        0.0     0.0     0.0
"Line.LN5714056-3"           1      343.6      103.8        6.6       -2.7    -5.0    -7.2        0.0        0.0        0.0        0.0
"Line.LN5714056-3"           2     -343.5     -103.8       -6.5        2.7     5.0     7.2
"Line.LN5985355-3"           1        0.0        0.0        0.0        0.0     0.0     0.0        0.0        0.0        0.0        0.0
"Line.LN5985355-3"           2        0.0        0.0        0.0        0.0     0.0     0.0
"Line.LN5531956-1"           1        0.0        0.0        0.0        0.0     0.0     0.0        0.0        0.0        0.0        0.0
"Line.LN5531956-1"           2        0.0        0.0        0.0        0.0     0.0     0.0
"Line.LN5650048-1"           1        0.0        0.0        0.0        0.0     0.0     0.0        0.0        0.0        0.0        0.0
"Line.LN5650048-1"           2        0.0        0.0        0.0        0.0     0.0     0.0
"Line.LN6290203-1"           1      404.3      112.5       -3.9       -2.1     5.0     0.2        0.0        0.0        0.0        0.0
"Line.LN6290203-1"           2     -404.2     -112.5        3.9        2.1    -5.0    -0.1
"Line.LN6134414-1"           1        0.0        0.0        0.0        0.0     0.0     0.0        0.0        0.0        0.0        0.0
"Line.LN6134414-1"           2        0.0        0.0        0.0        0.0     0.0     0.0
"Line.LN6259998-2"           1        0.0        0.0        0.0        0.0     0.0     0.0        0.0        0.0        0.0        0.0
"Line.LN6259998-2"           2        0.0        0.0        0.0        0.0     0.0     0.0
"Line.LN6078767-1"           1      347.6     -537.5        0.7        0.9     0.1     3.9        0.0        0.0        0.0        0.0
"Line.LN6078767-1"           2     -347.6      537.5       -0.7       -0.9    -0.1    -3.9
"Line.LN6017300-1"           1        0.0        0.0        0.0        0.0     0.0     0.0        0.0        0.0        0.0        0.0
"Line.LN6017300-1"           2        0.0        0.0        0.0        0.0     0.0     0.0
"Line.LN8979257-2"           1       11.9        3.2        0.0       -0.0    -0.0     0.0        0.0        0.0        0.0        0.0
"Line.LN8979257-2"           2      -11.9       -3.2       -0.0        0.0     0.0    -0.0
"Line.LN81048109-1"          1        0.0        0.0        0.0        0.0     0.0     0.0        0.0        0.0        0.0        0.0
"Line.LN81048109-1"          2        0.0        0.0        0.0        0.0     0.0     0.0
"Line.293471"                1        9.1        2.6       -0.0        0.0     0.0    -0.0        0.0        0.0        0.0        0.0
"Line.293471"                2       -9.1       -2.6        0.0       -0.0    -0.0     0.0
"Line.LN5534965-2"           1        0.0        0.0        0.0        0.0     0.0     0.0        0.0        0.0        0.0        0.0
"Line.LN5534965-2"           2        0.0        0.0        0.0        0.0     0.0     0.0
"Line.LN5655683-1"           1        0.0        0.0        0.0        0.0     0.0     0.0        0.0        0.0        0.0        0.0
"Line.LN5655683-1"           2        0.0        0.0        0.0        0.0     0.0     0.0
"Line.LN5686247-1"           1        0.0        0.0        0.0        0.0     0.0     0.0        0.0        0.0        0.0        0.0
"Line.LN5686247-1"           2        0.0        0.0        0.0        0.0     0.0     0.0
"Line.LN6048642-1"           1        0.0        0.0        0.0        0.0     0.0     0.0        0.0        0.0        0.0        0.0
"Line.LN6048642-1"           2        0.0        0.0        0.0        0.0     0.0     0.0
"Line.LN5928544-3"           1        0.0        0.0        0.0        0.0     0.0     0.0        0.0        0.0        0.0        0.0
"Line.LN5928544-3"           2        0.0        0.0        0.0        0.0     0.0     0.0
"Line.LN6108172-1"           1        0.0        0.0        0.0        0.0     0.0     0.0        0.0        0.0        0.0        0.0
"Line.LN6108172-1"           2        0.0        0.0        0.0        0.0     0.0     0.0
"Line.LN5532754-1"           1      373.4      112.6        7.4       -2.8    -4.7    -7.3        0.0        0.0        0.0        0.0
"Line.LN5532754-1"           2     -373.3     -112.6       -7.4        2.8     4.8     7.3
"Line.LN5591834-1"           1        0.0        0.0        0.0        0.0     0.0     0.0        0.0        0.0        0.0        0.0
"Line.LN5591834-1"           2        0.0        0.0        0.0        0.0     0.0     0.0
"Line.LN6347196-2"           1      216.7       62.2        3.1       -0.5    -2.7    -2.4        0.0        0.0        0.0        0.0
"Line.LN6347196-2"           2     -216.7      -62.2       -3.1        0.5     2.7     2.4
"Line.LN5532741-1"           1        0.0        0.0        0.0        0.0     0.0     0.0        0.0        0.0        0.0        0.0
"Line.LN5532741-1"           2        0.0        0.0        0.0        0.0     0.0     0.0
"Line.LN5804803-1"           1        0.0        0.0        0.0        0.0     0.0     0.0        0.0        0.0        0.0        0.0
"Line.LN5804803-1"           2        0.0        0.0        0.0        0.0     0.0     0.0
"Line.LN6169248-1"           1     1070.7      323.2       10.5      -11.6    -1.0   -16.6        0.0        0.0        0.0        0.0
"Line.LN6169248-1"           2    -1070.3     -322.9      -10.4       11.6     1.1    16.8
"Line.LN5532786-2"           1        0.0        0.0        0.0        0.0     0.0     0.0        0.0        0.0        0.0        0.0
"Line.LN5532786-2"           2        0.0        0.0        0.0        0.0     0.0     0.0
"Line.LN5744339-1"           1        0.0        0.0        0.0        0.0     0.0     0.0        0.0        0.0        0.0        0.0
"Line.LN5744339-1"           2        0.0        0.0        0.0        0.0     0.0     0.0
"Line.LN5531255-3"           1        0.0        0.0        0.0        0.0     0.0     0.0        0.0        0.0        0.0        0.0
"Line.LN5531255-3"           2        0.0        0.0        0.0        0.0     0.0     0.0
"Line.LN5926308-2"           1      365.0      101.0       -0.9       -0.6     0.0    -0.6        0.0        0.0        0.0        0.0
"Line.LN5926308-2"           2     -365.0     -101.0        0.9        0.6    -0.0     0.6
"Line.LN5683856-3"           1        0.0        0.0        0.0        0.0     0.0     0.0        0.0        0.0        0.0        0.0
"Line.LN5683856-3"           2        0.0        0.0        0.0        0.0     0.0     0.0
"Line.LN6171502-1"           1        0.0        0.0        0.0        0.0     0.0     0.0        0.0        0.0        0.0        0.0
"Line.LN6171502-1"           2        0.0        0.0        0.0        0.0     0.0     0.0
"Line.LN5593228-1"           1        0.0        0.0        0.0        0.0     0.0     0.0        0.0        0.0        0.0        0.0
"Line.LN5593228-1"           2        0.0        0.0        0.0        0.0     0.0     0.0
"Line.LN6380800-1"           1        0.0        0.0        0.0        0.0     0.0     0.0        0.0        0.0        0.0        0.0
"Line.LN6380800-1"           2        0.0        0.0        0.0        0.0     0.0     0.0
"Line.LN6199525-2"           1        0.0        0.0        0.0        0.0     0.0     0.0        0.0        0.0        0.0        0.0
"Line.LN6199525-2"           2        0.0        0.0        0.0        0.0     0.0     0.0
"Line.LN5772710-2"           1        0.0        0.0        0.0        0.0     0.0     0.0        0.0        0.0        0.0        0.0
"Line.LN5772710-2"           2        0.0        0.0        0.0        0.0     0.0     0.0
"Line.LN8961760-1"           1        0.0        0.0        0.0        0.0     0.0     0.0        0.0        0.0        0.0        0.0
"Line.LN8961760-1"           2        0.0        0.0        0.0        0.0     0.0     0.0
"Line.LN6047556-1"           1        0.0        0.0        0.0        0.0     0.0     0.0        0.0        0.0        0.0        0.0
"Line.LN6047556-1"           2        0.0        0.0        0.0        0.0     0.0     0.0
"Line.LN6138603-1"           1        0.0        0.0        0.0        0.0     0.0     0.0        0.0        0.0        0.0        0.0
"Line.LN6138603-1"           2        0.0        0.0        0.0        0.0     0.0     0.0
"Line.LN6108139-1"           1        0.0        0.0        0.0        0.0     0.0     0.0        0.0        0.0        0.0        0.0
"Line.LN6108139-1"           2        0.0        0.0        0.0        0.0     0.0     0.0
"Line.LN6388581-2"           1        0.0        0.0        0.0        0.0     0.0     0.0        0.0        0.0        0.0        0.0
"Line.LN6388581-2"           2        0.0        0.0        0.0        0.0     0.0     0.0
"Line.LN5774460-1"           1        0.0        0.0        0.0        0.0     0.0     0.0        0.0        0.0        0.0        0.0
"Line.LN5774460-1"           2        0.0        0.0        0.0        0.0     0.0     0.0
"Line.LN5624387-1"           1        0.0        0.0        0.0        0.0     0.0     0.0        0.0        0.0        0.0        0.0
"Line.LN5624387-1"           2        0.0        0.0        0.0        0.0     0.0     0.0
"Line.LN6137087-1"           1        0.0        0.0        0.0        0.0     0.0     0.0        0.0        0.0        0.0        0.0
"Line.LN6137087-1"           2        0.0        0.0        0.0        0.0     0.0     0.0
"Line.LN6077809-1"           1        0.0        0.0        0.0        0.0     0.0     0.0        0.0        0.0        0.0        0.0
"Line.LN6077809-1"           2        0.0        0.0        0.0        0.0     0.0     0.0
"Line.LN6440079-1"           1        0.0        0.0        0.0        0.0     0.0     0.0        0.0        0.0        0.0        0.0
"Line.LN6440079-1"           2        0.0        0.0        0.0        0.0     0.0     0.0
"Line.LN5804794-1"           1        0.0        0.0        0.0        0.0     0.0     0.0        0.0        0.0        0.0        0.0
"Line.LN5804794-1"           2        0.0        0.0        0.0        0.0     0.0     0.0
"Line.LN5654484-1"           1        0.0        0.0        0.0        0.0     0.0     0.0        0.0        0.0        0.0        0.0
"Line.LN5654484-1"           2        0.0        0.0        0.0        0.0     0.0     0.0
"Line.LN5774465-1"           1        0.0        0.0        0.0        0.0     0.0     0.0        0.0        0.0        0.0        0.0
"Line.LN5774465-1"           2        0.0        0.0        0.0        0.0     0.0     0.0
"Line.LN5473349-1"           1     3604.5     -148.9       10.3      -13.2     2.6   -21.1        0.0        0.0        0.0        0.0
"Line.LN5473349-1"           2    -3604.2      149.6      -10.2       13.3    -2.5    21.3
"Line.LN6169253-1"           1        0.0        0.0        0.0        0.0     0.0     0.0        0.0        0.0        0.0        0.0
"Line.LN6169253-1"           2        0.0        0.0        0.0        0.0     0.0     0.0
"Line.LN6350536-1"           1        0.0        0.0        0.0        0.0     0.0     0.0        0.0        0.0        0.0        0.0
"Line.LN6350536-1"           2        0.0        0.0        0.0        0.0     0.0     0.0
"Line.LN6048523-1"           1        0.0        0.0        0.0        0.0     0.0     0.0        0.0        0.0        0.0        0.0
"Line.LN6048523-1"           2        0.0        0.0        0.0        0.0     0.0     0.0
"Line.LN5594152-1"           1        0.0        0.0        0.0        0.0     0.0     0.0        0.0        0.0        0.0        0.0
"Line.LN5594152-1"           2        0.0        0.0        0.0        0.0     0.0     0.0
"Line.LN5865248-1"           1      394.7      109.4       -0.8       -0.8    -0.0    -0.6        0.0        0.0        0.0        0.0
"Line.LN5865248-1"           2     -394.6     -109.4        0.8        0.8     0.0     0.6
"Line.LN6046143-1"           1        0.0        0.0        0.0        0.0     0.0     0.0        0.0        0.0        0.0        0.0
"Line.LN6046143-1"           2        0.0        0.0        0.0        0.0     0.0     0.0
"Line.LN5803287-1"           1        0.0        0.0        0.0        0.0     0.0     0.0        0.0        0.0        0.0        0.0
"Line.LN5803287-1"           2        0.0        0.0        0.0        0.0     0.0     0.0
"Line.LN5589094-1"           1        0.0        0.0        0.0        0.0     0.0     0.0        0.0        0.0        0.0        0.0
"Line.LN5589094-1"           2        0.0        0.0        0.0        0.0     0.0     0.0
"Line.LN5954983-1"           1        0.0        0.0        0.0        0.0     0.0     0.0        0.0        0.0        0.0        0.0
"Line.LN5954983-1"           2        0.0        0.0        0.0        0.0     0.0     0.0
"Line.LN5924696-2"           1        0.0        0.0        0.0        0.0     0.0     0.0        0.0        0.0        0.0        0.0
"Line.LN5924696-2"           2        0.0        0.0        0.0        0.0     0.0     0.0
"Line.LN6506311-4"           1        3.3        0.8        0.0        0.0    -0.0     0.1        0.0        0.0        0.0        0.0
"Line.LN6506311-4"           2       -3.3       -0.8       -0.0       -0.0     0.0    -0.1
"Line.LN5653493-1"           1        0.0        0.0        0.0        0.0     0.0     0.0        0.0        0.0        0.0        0.0
"Line.LN5653493-1"           2        0.0        0.0        0.0        0.0     0.0     0.0
"Line.LN5684836-1"           1     3665.6     -123.6       -4.2       -9.5    -7.1   -33.6        0.0        0.0        0.0        0.0
"Line.LN5684836-1"           2    -3664.8      125.6        4.3        9.7     7.3    34.1
"Line.LN5715016-3"           1        0.0        0.0        0.0        0.0     0.0     0.0        0.0        0.0        0.0        0.0
"Line.LN5715016-3"           2        0.0        0.0        0.0        0.0     0.0     0.0
"Line.LN6138614-1"           1      409.5     -855.8       -0.7       -0.8     0.0    -0.5        0.0        0.0        0.0        0.0
"Line.LN6138614-1"           2     -408.9      856.0        0.7        0.9    -0.0     0.5
"Line.LN6077781-2"           1     3074.1      895.8       21.2      -16.5     0.7   -23.3        0.0        0.0        0.0        0.0
"Line.LN6077781-2"           2    -3070.5     -892.4      -21.0       16.7    -0.4    23.9
"Line.LN5675121-1"           1        0.0        0.0        0.0        0.0     0.0     0.0        0.0        0.0        0.0        0.0
"Line.LN5675121-1"           2        0.0        0.0        0.0        0.0     0.0     0.0
"Line.LN5773046-1"           1        0.0        0.0        0.0        0.0     0.0     0.0        0.0        0.0        0.0        0.0
"Line.LN5773046-1"           2        0.0        0.0        0.0        0.0     0.0     0.0
"Line.LN6380809-2"           1      447.1      134.3       -3.3       -6.7     6.6    -4.2        0.0        0.0        0.0        0.0
"Line.LN6380809-2"           2     -447.0     -134.3        3.3        6.7    -6.6     4.2
"Line.LN6018326-1"           1        0.0        0.0        0.0        0.0     0.0     0.0        0.0        0.0        0.0        0.0
"Line.LN6018326-1"           2        0.0        0.0        0.0        0.0     0.0     0.0
"Line.LN5472356-1"           1        0.0        0.0        0.0        0.0     0.0     0.0        0.0        0.0        0.0        0.0
"Line.LN5472356-1"           2        0.0        0.0        0.0        0.0     0.0     0.0
"Line.LN6139641-1"           1    -3394.0     2670.6       -1.8       -5.0    -2.1   -15.8        0.0        0.0        0.0        0.0
"Line.LN6139641-1"           2     3394.7    -2669.2        1.8        5.0     2.2    16.1
"Line.LN6018341-1"           1     1269.3     -612.6        0.8        0.9    -0.4     1.9        0.0        0.0        0.0        0.0
"Line.LN6018341-1"           2    -1269.1      612.9       -0.8       -0.8     0.4    -1.9
"Line.LN6017302-1"           1      162.5       44.8       -1.7        0.1     0.3    -1.0        0.0        0.0        0.0        0.0
"Line.LN6017302-1"           2     -162.5      -44.8        1.7       -0.1    -0.3     1.0
"Line.LN6199505-1"           1        0.0        0.0        0.0        0.0     0.0     0.0        0.0        0.0        0.0        0.0
"Line.LN6199505-1"           2        0.0        0.0        0.0        0.0     0.0     0.0
"Line.LN5682327-1"           1        0.0        0.0        0.0        0.0     0.0     0.0        0.0        0.0        0.0        0.0
"Line.LN5682327-1"           2        0.0        0.0        0.0        0.0     0.0     0.0
"Line.LN6290243-1"           1        0.0        0.0        0.0        0.0     0.0     0.0        0.0        0.0        0.0        0.0
"Line.LN6290243-1"           2        0.0        0.0        0.0        0.0     0.0     0.0
"Line.X8223_48332_SW"        1      626.0     -786.6       -0.9       -0.9     0.8    -0.5        0.0        0.0        0.0        0.0
"Line.X8223_48332_SW"        2     -626.0      786.6        0.9        0.9    -0.8     0.5
"Line.LN6413567-3"           1      626.1     -786.5       -0.9       -0.9     0.8    -0.5        0.0        0.0        0.0        0.0
"Line.LN6413567-3"           2     -626.0      786.6        0.9        0.9    -0.8     0.5
"Line.LN5591731-3"           1    -3837.9     2483.5       -2.9       -6.9    -7.3   -28.6        0.0        0.0        0.0        0.0
"Line.LN5591731-3"           2     3837.9    -2483.4        2.9        6.9     7.3    28.6
"Line.LN5653470-1"           1        7.6        2.4        0.0       -0.0     0.0    -0.1        0.0        0.0        0.0        0.0
"Line.LN5653470-1"           2       -7.6       -2.4       -0.0        0.0    -0.0     0.1
"Line.LN6017316-1"           1        0.0        0.0        0.0        0.0     0.0     0.0        0.0        0.0        0.0        0.0
"Line.LN6017316-1"           2        0.0        0.0        0.0        0.0     0.0     0.0
"Line.LN5926299-1"           1        0.0        0.0        0.0        0.0     0.0     0.0        0.0        0.0        0.0        0.0
"Line.LN5926299-1"           2        0.0        0.0        0.0        0.0     0.0     0.0
"Line.LN5683831-1"           1      403.6      111.8       -0.7       -0.7     0.0    -0.5        0.0        0.0        0.0        0.0
"Line.LN5683831-1"           2     -403.5     -111.8        0.7        0.7     0.0     0.5
"Line.LN6352700-1"           1        0.0        0.0        0.0        0.0     0.0     0.0        0.0        0.0        0.0        0.0
"Line.LN6352700-1"           2        0.0        0.0        0.0        0.0     0.0     0.0
"Line.LN6047570-1"           1        0.0        0.0        0.0        0.0     0.0     0.0        0.0        0.0        0.0        0.0
"Line.LN6047570-1"           2        0.0        0.0        0.0        0.0     0.0     0.0
"Line.LN5624342-1"           1     3678.6     -115.1       -4.1       -9.1    -6.5   -32.5        0.0        0.0        0.0        0.0
"Line.LN5624342-1"           2    -3677.9      116.6        4.1        9.2     6.6    32.9
"Line.LN6259992-1"           1        0.0        0.0        0.0        0.0     0.0     0.0        0.0        0.0        0.0        0.0
"Line.LN6259992-1"           2        0.0        0.0        0.0        0.0     0.0     0.0
"Line.LN5841919-1"           1        0.0        0.0        0.0        0.0     0.0     0.0        0.0        0.0        0.0        0.0
"Line.LN5841919-1"           2        0.0        0.0        0.0        0.0     0.0     0.0
"Line.LN6380811-1"           1        0.0        0.0        0.0        0.0     0.0     0.0        0.0        0.0        0.0        0.0
"Line.LN6380811-1"           2        0.0        0.0        0.0        0.0     0.0     0.0
"Line.LN5683832-1"           1        0.0        0.0        0.0        0.0     0.0     0.0        0.0        0.0        0.0        0.0
"Line.LN5683832-1"           2        0.0        0.0        0.0        0.0     0.0     0.0
"Line.LN6077778-1"           1        0.0        0.0        0.0        0.0     0.0     0.0        0.0        0.0        0.0        0.0
"Line.LN6077778-1"           2        0.0        0.0        0.0        0.0     0.0     0.0
"Line.LN5561442-2"           1    -3429.8     2641.2       -2.3       -5.6    -3.3   -20.2        0.0        0.0        0.0        0.0
"Line.LN5561442-2"           2     3430.7    -2639.1        2.4        5.7     3.5    20.6
"Line.LN6259983-1"           1        0.0        0.0        0.0        0.0     0.0     0.0        0.0        0.0        0.0        0.0
"Line.LN6259983-1"           2        0.0        0.0        0.0        0.0     0.0     0.0
"Line.LN5865244-1"           1        0.0        0.0        0.0        0.0     0.0     0.0        0.0        0.0        0.0        0.0
"Line.LN5865244-1"           2        0.0        0.0        0.0        0.0     0.0     0.0
"Line.LN6350555-1"           1        0.0        0.0        0.0        0.0     0.0     0.0        0.0        0.0        0.0        0.0
"Line.LN6350555-1"           2        0.0        0.0        0.0        0.0     0.0     0.0
"Line.LN5714039-1"           1        0.0        0.0        0.0        0.0     0.0     0.0        0.0        0.0        0.0        0.0
"Line.LN5714039-1"           2        0.0        0.0        0.0        0.0     0.0     0.0
"Line.LN5889821-1"           1    -3897.1     2455.6       -3.3       -6.8    -7.0   -30.2        0.0        0.0        0.0        0.0
"Line.LN5889821-1"           2     3898.8    -2451.8        3.3        6.9     7.2    30.8
"Line.LN5804791-1"           1      588.2     -806.4       -1.1       -0.7     0.8    -0.4        0.0        0.0        0.0        0.0
"Line.LN5804791-1"           2     -587.5      806.6        1.1        0.7    -0.7     0.4
"Line.LN5653486-1"           1        0.0        0.0        0.0        0.0     0.0     0.0        0.0        0.0        0.0        0.0
"Line.LN5653486-1"           2        0.0        0.0        0.0        0.0     0.0     0.0
"Line.LN5926286-1"           1        0.0        0.0        0.0        0.0     0.0     0.0        0.0        0.0        0.0        0.0
"Line.LN5926286-1"           2        0.0        0.0        0.0        0.0     0.0     0.0
"Line.LN6318859-1"           1        0.0        0.0        0.0        0.0     0.0     0.0        0.0        0.0        0.0        0.0
"Line.LN6318859-1"           2        0.0        0.0        0.0        0.0     0.0     0.0
"Line.LN5926316-1"           1        0.0        0.0        0.0        0.0     0.0     0.0        0.0        0.0        0.0        0.0
"Line.LN5926316-1"           2        0.0        0.0        0.0        0.0     0.0     0.0
"Line.LN5591703-1"           1        0.0        0.0        0.0        0.0     0.0     0.0        0.0        0.0        0.0        0.0
"Line.LN5591703-1"           2        0.0        0.0        0.0        0.0     0.0     0.0
"Line.LN5531333-1"           1        0.0        0.0        0.0        0.0     0.0     0.0        0.0        0.0        0.0        0.0
"Line.LN5531333-1"           2        0.0        0.0        0.0        0.0     0.0     0.0
"Line.LN6047581-1"           1        0.0        0.0        0.0        0.0     0.0     0.0        0.0        0.0        0.0        0.0
"Line.LN6047581-1"           2        0.0        0.0        0.0        0.0     0.0     0.0
"Line.LN6349077-1"           1        0.0        0.0        0.0        0.0     0.0     0.0        0.0        0.0        0.0        0.0
"Line.LN6349077-1"           2        0.0        0.0        0.0        0.0     0.0     0.0
"Line.LN6350574-1"           1       95.7       25.9        0.1       -0.1    -0.2     0.0        0.0        0.0        0.0        0.0
"Line.LN6350574-1"           2      -95.7      -25.9       -0.1        0.1     0.2    -0.0
"Line.LN6320343-1"           1        0.0        0.0        0.0        0.0     0.0     0.0        0.0        0.0        0.0        0.0
"Line.LN6320343-1"           2        0.0        0.0        0.0        0.0     0.0     0.0
"Line.LN81048100-5"          1        0.0        0.0        0.0        0.0     0.0     0.0        0.0        0.0        0.0        0.0
"Line.LN81048100-5"          2        0.0        0.0        0.0        0.0     0.0     0.0
"Line.LN6348946-1"           1        0.0        0.0        0.0        0.0     0.0     0.0        0.0        0.0        0.0        0.0
"Line.LN6348946-1"           2        0.0        0.0        0.0        0.0     0.0     0.0
"Line.LN5744351-1"           1        0.0        0.0        0.0        0.0     0.0     0.0        0.0        0.0        0.0        0.0
"Line.LN5744351-1"           2        0.0        0.0        0.0        0.0     0.0     0.0
"Line.LN5472342-1"           1        0.0        0.0        0.0        0.0     0.0     0.0        0.0        0.0        0.0        0.0
"Line.LN5472342-1"           2        0.0        0.0        0.0        0.0     0.0     0.0
"Line.LN5621849-1"           1        0.0        0.0        0.0        0.0     0.0     0.0        0.0        0.0        0.0        0.0
"Line.LN5621849-1"           2        0.0        0.0        0.0        0.0     0.0     0.0
"Line.LN6379375-1"           1        0.0        0.0        0.0        0.0     0.0     0.0        0.0        0.0        0.0        0.0
"Line.LN6379375-1"           2        0.0        0.0        0.0        0.0     0.0     0.0
"Line.LN6028890-1"           1       17.4        4.9        0.0        0.0    -0.0     0.0        0.0        0.0        0.0        0.0
"Line.LN6028890-1"           2      -17.4       -5.0       -0.0       -0.0     0.0    -0.0
"Line.LN6380822-1"           1      852.7      251.6        3.7       -8.0     2.4   -10.0        0.0        0.0        0.0        0.0
"Line.LN6380822-1"           2     -852.4     -251.4       -3.7        8.1    -2.3    10.1
"Line.LN5835131-1"           1      400.2      111.3       -3.7       -2.1     4.9     0.1        0.0        0.0        0.0        0.0
"Line.LN5835131-1"           2     -400.2     -111.3        3.7        2.1    -4.9    -0.1
"Line.LN5803262-7"           1        0.0        0.0        0.0        0.0     0.0     0.0        0.0        0.0        0.0        0.0
"Line.LN5803262-7"           2        0.0        0.0        0.0        0.0     0.0     0.0
"Line.LN81048089-1"          1        0.0        0.0        0.0        0.0     0.0     0.0        0.0        0.0        0.0        0.0
"Line.LN81048089-1"          2        0.0        0.0        0.0        0.0     0.0     0.0
"Line.LN6201699-1"           1        0.0        0.0        0.0        0.0     0.0     0.0        0.0        0.0        0.0        0.0
"Line.LN6201699-1"           2        0.0        0.0        0.0        0.0     0.0     0.0
"Line.LN5746548-1"           1      360.7      108.6        6.8       -2.6    -4.7    -7.0        0.0        0.0        0.0        0.0
"Line.LN5746548-1"           2     -360.7     -108.6       -6.8        2.6     4.7     7.0
"Line.LN5835174-1"           1        0.0        0.0        0.0        0.0     0.0     0.0        0.0        0.0        0.0        0.0
"Line.LN5835174-1"           2        0.0        0.0        0.0        0.0     0.0     0.0
"Line.LN6505947-4"           1        0.0        0.0        0.0        0.0     0.0     0.0        0.0        0.0        0.0        0.0
"Line.LN6505947-4"           2        0.0        0.0        0.0        0.0     0.0     0.0
"Line.LN5683833-1"           1        0.0        0.0        0.0        0.0     0.0     0.0        0.0        0.0        0.0        0.0
"Line.LN5683833-1"           2        0.0        0.0        0.0        0.0     0.0     0.0
"Line.LN5561439-3"           1      253.4       73.4       -3.8       -1.3     7.0    -1.8        0.0        0.0        0.0        0.0
"Line.LN5561439-3"           2     -253.4      -73.5        3.8        1.3    -7.0     1.9
"Line.LN6109190-1"           1        0.0        0.0        0.0        0.0     0.0     0.0        0.0        0.0        0.0        0.0
"Line.LN6109190-1"           2        0.0        0.0        0.0        0.0     0.0     0.0
"Line.LN6258435-2"           1        0.0        0.0        0.0        0.0     0.0     0.0        0.0        0.0        0.0        0.0
"Line.LN6258435-2"           2        0.0        0.0        0.0        0.0     0.0     0.0
"Line.LN5804819-1"           1        0.0        0.0        0.0        0.0     0.0     0.0        0.0        0.0        0.0        0.0
"Line.LN5804819-1"           2        0.0        0.0        0.0        0.0     0.0     0.0
"Line.LN5593215-1"           1        0.0        0.0        0.0        0.0     0.0     0.0        0.0        0.0        0.0        0.0
"Line.LN5593215-1"           2        0.0        0.0        0.0        0.0     0.0     0.0
"Line.LN5833717-1"           1      514.4      142.1       -4.0       -1.9     5.5     0.8        0.0        0.0        0.0        0.0
"Line.LN5833717-1"           2     -514.4     -142.1        4.1        1.9    -5.5    -0.8
"Line.LN6199557-1"           1      510.7      140.9       -3.9       -1.8     5.4     0.8        0.0        0.0        0.0        0.0
"Line.LN6199557-1"           2     -510.6     -140.9        3.9        1.8    -5.4    -0.8
"Line.LN5744332-1"           1        0.0        0.0        0.0        0.0     0.0     0.0        0.0        0.0        0.0        0.0
"Line.LN5744332-1"           2        0.0        0.0        0.0        0.0     0.0     0.0
"Line.LN5558790-1"           1    -3366.3     2692.9       -1.4       -4.6    -1.3   -12.9        0.0        0.0        0.0        0.0
"Line.LN5558790-1"           2     3366.6    -2692.4        1.4        4.6     1.3    13.0
"Line.LN6078692-1"           1        0.0        0.0        0.0        0.0     0.0     0.0        0.0        0.0        0.0        0.0
"Line.LN6078692-1"           2        0.0        0.0        0.0        0.0     0.0     0.0
"Line.LN5956482-1"           1        0.0        0.0        0.0        0.0     0.0     0.0        0.0        0.0        0.0        0.0
"Line.LN5956482-1"           2        0.0        0.0        0.0        0.0     0.0     0.0
"Line.LN5593225-1"           1        0.0        0.0        0.0        0.0     0.0     0.0        0.0        0.0        0.0        0.0
"Line.LN5593225-1"           2        0.0        0.0        0.0        0.0     0.0     0.0
"Line.LN6900591-26"          1        0.0        0.0        0.0        0.0     0.0     0.0        0.0        0.0        0.0        0.0
"Line.LN6900591-26"          2        0.0        0.0        0.0        0.0     0.0     0.0
"Line.LN5952393-1"           1        0.0        0.0        0.0        0.0     0.0     0.0        0.0        0.0        0.0        0.0
"Line.LN5952393-1"           2        0.0        0.0        0.0        0.0     0.0     0.0
"Line.LN6350531-1"           1        0.0        0.0        0.0        0.0     0.0     0.0        0.0        0.0        0.0        0.0
"Line.LN6350531-1"           2        0.0        0.0        0.0        0.0     0.0     0.0
"Line.LN5965099-10"          1      107.4       24.8        1.1        2.5    -1.6     1.8        0.0        0.0        0.0        0.0
"Line.LN5965099-10"          2     -107.4      -24.8       -1.1       -2.5     1.6    -1.8
"Line.LN6047568-1"           1        0.0        0.0        0.0        0.0     0.0     0.0        0.0        0.0        0.0        0.0
"Line.LN6047568-1"           2        0.0        0.0        0.0        0.0     0.0     0.0
"Line.LN5926292-1"           1        0.0        0.0        0.0        0.0     0.0     0.0        0.0        0.0        0.0        0.0
"Line.LN5926292-1"           2        0.0        0.0        0.0        0.0     0.0     0.0
"Line.LN6380806-1"           1        0.0        0.0        0.0        0.0     0.0     0.0        0.0        0.0        0.0        0.0
"Line.LN6380806-1"           2        0.0        0.0        0.0        0.0     0.0     0.0
"Line.LN6341781-3"           1        0.0        0.0        0.0        0.0     0.0     0.0        0.0        0.0        0.0        0.0
"Line.LN6341781-3"           2        0.0        0.0        0.0        0.0     0.0     0.0
"Line.LN8979367-1"           1        0.0        0.0        0.0        0.0     0.0     0.0        0.0        0.0        0.0        0.0
"Line.LN8979367-1"           2        0.0        0.0        0.0        0.0     0.0     0.0
"Line.LN6018340-1"           1        0.0        0.0        0.0        0.0     0.0     0.0        0.0        0.0        0.0        0.0
"Line.LN6018340-1"           2        0.0        0.0        0.0        0.0     0.0     0.0
"Line.LN6380847-1"           1      305.8       84.3       -1.1       -0.3     0.1    -0.6        0.0        0.0        0.0        0.0
"Line.LN6380847-1"           2     -305.7      -84.4        1.1        0.3    -0.1     0.6
"Line.LN8961797-1"           1        0.0        0.0        0.0        0.0     0.0     0.0        0.0        0.0        0.0        0.0
"Line.LN8961797-1"           2        0.0        0.0        0.0        0.0     0.0     0.0
"Line.LN6077797-1"           1        0.0        0.0        0.0        0.0     0.0     0.0        0.0        0.0        0.0        0.0
"Line.LN6077797-1"           2        0.0        0.0        0.0        0.0     0.0     0.0
"Line.LN6077773-1"           1        0.0        0.0        0.0        0.0     0.0     0.0        0.0        0.0        0.0        0.0
"Line.LN6077773-1"           2        0.0        0.0        0.0        0.0     0.0     0.0
"Line.LN5837496-4"           1        0.0        0.0        0.0        0.0     0.0     0.0        0.0        0.0        0.0        0.0
"Line.LN5837496-4"           2        0.0        0.0        0.0        0.0     0.0     0.0
"Line.LN5623392-1"           1        0.0        0.0        0.0        0.0     0.0     0.0        0.0        0.0        0.0        0.0
"Line.LN5623392-1"           2        0.0        0.0        0.0        0.0     0.0     0.0
"Line.LN5624380-1"           1        0.0        0.0        0.0        0.0     0.0     0.0        0.0        0.0        0.0        0.0
"Line.LN5624380-1"           2        0.0        0.0        0.0        0.0     0.0     0.0
"Line.LN6422809-2"           1     1745.9      508.1        8.8      -11.6     3.3   -14.1        0.0        0.0        0.0        0.0
"Line.LN6422809-2"           2    -1745.8     -508.1       -8.8       11.6    -3.3    14.1
"Line.LN5799561-1"           1      450.1     -509.2        0.7        1.0     0.6     5.0        0.0        0.0        0.0        0.0
"Line.LN5799561-1"           2     -450.1      509.2       -0.7       -1.0    -0.6    -4.9
"Line.LN6229818-1"           1        0.0        0.0        0.0        0.0     0.0     0.0        0.0        0.0        0.0        0.0
"Line.LN6229818-1"           2        0.0        0.0        0.0        0.0     0.0     0.0
"Line.LN5593230-1"           1        0.0        0.0        0.0        0.0     0.0     0.0        0.0        0.0        0.0        0.0
"Line.LN5593230-1"           2        0.0        0.0        0.0        0.0     0.0     0.0
"Line.LN5563901-3"           1     3762.4      -87.9       -4.1       -9.8    -8.3   -34.3        0.0        0.0        0.0        0.0
"Line.LN5563901-3"           2    -3761.8       89.3        4.2        9.9     8.4    34.6
"Line.LN6320339-1"           1        0.0        0.0        0.0        0.0     0.0     0.0        0.0        0.0        0.0        0.0
"Line.LN6320339-1"           2        0.0        0.0        0.0        0.0     0.0     0.0
"Line.LN5986927-1"           1        0.0        0.0        0.0        0.0     0.0     0.0        0.0        0.0        0.0        0.0
"Line.LN5986927-1"           2        0.0        0.0        0.0        0.0     0.0     0.0
"Line.LN6047567-1"           1        0.0        0.0        0.0        0.0     0.0     0.0        0.0        0.0        0.0        0.0
"Line.LN6047567-1"           2        0.0        0.0        0.0        0.0     0.0     0.0
"Line.LN5714047-1"           1        0.0        0.0        0.0        0.0     0.0     0.0        0.0        0.0        0.0        0.0
"Line.LN5714047-1"           2        0.0        0.0        0.0        0.0     0.0     0.0
"Line.LN5563934-1"           1        0.0        0.0        0.0        0.0     0.0     0.0        0.0        0.0        0.0        0.0
"Line.LN5563934-1"           2        0.0        0.0        0.0        0.0     0.0     0.0
"Line.LN6169249-3"           1        0.0        0.0        0.0        0.0     0.0     0.0        0.0        0.0        0.0        0.0
"Line.LN6169249-3"           2        0.0        0.0        0.0        0.0     0.0     0.0
"Line.LN6230800-1"           1        0.0        0.0        0.0        0.0     0.0     0.0        0.0        0.0        0.0        0.0
"Line.LN6230800-1"           2        0.0        0.0        0.0        0.0     0.0     0.0
"Line.LN5985339-2"           1        0.0        0.0        0.0        0.0     0.0     0.0        0.0        0.0        0.0        0.0
"Line.LN5985339-2"           2        0.0        0.0        0.0        0.0     0.0     0.0
"Line.LN5898059-3"           1        0.0        0.0        0.0        0.0     0.0     0.0        0.0        0.0        0.0        0.0
"Line.LN5898059-3"           2        0.0        0.0        0.0        0.0     0.0     0.0
"Line.LN5956457-2"           1      388.2      107.7       -3.6       -1.9     4.6     0.2        0.0        0.0        0.0        0.0
"Line.LN5956457-2"           2     -388.2     -107.7        3.6        1.9    -4.6    -0.2
"Line.LN5865229-1"           1        0.0        0.0        0.0        0.0     0.0     0.0        0.0        0.0        0.0        0.0
"Line.LN5865229-1"           2        0.0        0.0        0.0        0.0     0.0     0.0
"Line.LN6018331-1"           1      428.9     -515.1        0.6        0.9     0.6     4.5        0.0        0.0        0.0        0.0
"Line.LN6018331-1"           2     -428.8      515.1       -0.6       -0.9    -0.6    -4.4
"Line.LN6199535-1"           1        0.0        0.0        0.0        0.0     0.0     0.0        0.0        0.0        0.0        0.0
"Line.LN6199535-1"           2        0.0        0.0        0.0        0.0     0.0     0.0
"Line.LN5502538-1"           1      414.1      121.3        7.9       -1.6    -5.2    -6.1        0.0        0.0        0.0        0.0
"Line.LN5502538-1"           2     -414.0     -121.3       -7.8        1.6     5.3     6.1
"Line.LN5742816-2"           1        0.0        0.0        0.0        0.0     0.0     0.0        0.0        0.0        0.0        0.0
"Line.LN5742816-2"           2        0.0        0.0        0.0        0.0     0.0     0.0
"Line.LN6229803-3"           1        0.0        0.0        0.0        0.0     0.0     0.0        0.0        0.0        0.0        0.0
"Line.LN6229803-3"           2        0.0        0.0        0.0        0.0     0.0     0.0
"Line.LN5986930-1"           1        0.0        0.0        0.0        0.0     0.0     0.0        0.0        0.0        0.0        0.0
"Line.LN5986930-1"           2        0.0        0.0        0.0        0.0     0.0     0.0
"Line.LN6350532-1"           1        0.0        0.0        0.0        0.0     0.0     0.0        0.0        0.0        0.0        0.0
"Line.LN6350532-1"           2        0.0        0.0        0.0        0.0     0.0     0.0
"Line.LN5588016-3"           1        0.0        0.0        0.0        0.0     0.0     0.0        0.0        0.0        0.0        0.0
"Line.LN5588016-3"           2        0.0        0.0        0.0        0.0     0.0     0.0
...
"Line.V7173_48332_SW"        1     3502.8     -224.7        7.8      -17.4    -2.2   -34.4        0.0        0.0        0.0        0.0
"Line.V7173_48332_SW"        2    -3502.8      224.8       -7.8       17.4     2.2    34.4
"Line.LN5534969-2"           1     3503.1     -224.1        7.8      -17.4    -2.1   -34.3        0.0        0.0        0.0        0.0
"Line.LN5534969-2"           2    -3502.8      224.7       -7.8       17.4     2.2    34.4
"Line.LN6015891-1"           1        0.0        0.0        0.0        0.0     0.0     0.0        0.0        0.0        0.0        0.0
"Line.LN6015891-1"           2        0.0        0.0        0.0        0.0     0.0     0.0
"Line.LN5683816-1"           1      413.4      123.9       -4.2       -6.3     6.9    -3.6        0.0        0.0        0.0        0.0
"Line.LN5683816-1"           2     -413.2     -123.9        4.2        6.3    -6.9     3.6
"Line.LN6199561-1"           1        0.0        0.0        0.0        0.0     0.0     0.0        0.0        0.0        0.0        0.0
"Line.LN6199561-1"           2        0.0        0.0        0.0        0.0     0.0     0.0
"Line.LN6900591-12"          1        0.0        0.0        0.0        0.0     0.0     0.0        0.0        0.0        0.0        0.0
"Line.LN6900591-12"          2        0.0        0.0        0.0        0.0     0.0     0.0
"Line.LN6411363-1"           1        0.0        0.0        0.0        0.0     0.0     0.0        0.0        0.0        0.0        0.0
"Line.LN6411363-1"           2        0.0        0.0        0.0        0.0     0.0     0.0
"Line.LN6108130-6"           1        0.0        0.0        0.0        0.0     0.0     0.0        0.0        0.0        0.0        0.0
"Line.LN6108130-6"           2        0.0        0.0        0.0        0.0     0.0     0.0
"Line.LN5837516-1"           1        0.0        0.0        0.0        0.0     0.0     0.0        0.0        0.0        0.0        0.0
"Line.LN5837516-1"           2        0.0        0.0        0.0        0.0     0.0     0.0
"Line.LN6017301-4"           1        0.0        0.0        0.0        0.0     0.0     0.0        0.0        0.0        0.0        0.0
"Line.LN6017301-4"           2        0.0        0.0        0.0        0.0     0.0     0.0
"Line.LN5981121-1"           1        0.0        0.0        0.0        0.0     0.0     0.0        0.0        0.0        0.0        0.0
"Line.LN5981121-1"           2        0.0        0.0        0.0        0.0     0.0     0.0
"Line.LN81048107-4"          1        0.0        0.0        0.0        0.0     0.0     0.0        0.0        0.0        0.0        0.0
"Line.LN81048107-4"          2        0.0        0.0        0.0        0.0     0.0     0.0
"Line.LN5472374-1"           1        0.0        0.0        0.0        0.0     0.0     0.0        0.0        0.0        0.0        0.0
"Line.LN5472374-1"           2        0.0        0.0        0.0        0.0     0.0     0.0
"Line.LN5746550-2"           1        0.0        0.0        0.0        0.0     0.0     0.0        0.0        0.0        0.0        0.0
"Line.LN5746550-2"           2        0.0        0.0        0.0        0.0     0.0     0.0
"Line.LN5561437-1"           1      126.5       34.0        0.1       -0.1    -0.3     0.2        0.0        0.0        0.0        0.0
"Line.LN5561437-1"           2     -126.4      -34.1       -0.1        0.1     0.3    -0.2
"Line.LN6439986-3"           1        0.0        0.0        0.0        0.0     0.0     0.0        0.0        0.0        0.0        0.0
"Line.LN6439986-3"           2        0.0        0.0        0.0        0.0     0.0     0.0
"Line.LN5744324-1"           1        0.0        0.0        0.0        0.0     0.0     0.0        0.0        0.0        0.0        0.0
"Line.LN5744324-1"           2        0.0        0.0        0.0        0.0     0.0     0.0
"Line.LN6376708-1"           1        0.0        0.0        0.0        0.0     0.0     0.0        0.0        0.0        0.0        0.0
"Line.LN6376708-1"           2        0.0        0.0        0.0        0.0     0.0     0.0
"Line.LN5895816-2"           1       20.5        5.9       -0.1        0.0     0.2     0.1        0.0        0.0        0.0        0.0
"Line.LN5895816-2"           2      -20.5       -5.9        0.1       -0.0    -0.2    -0.1
"Line.LN5593235-1"           1        0.0        0.0        0.0        0.0     0.0     0.0        0.0        0.0        0.0        0.0
"Line.LN5593235-1"           2        0.0        0.0        0.0        0.0     0.0     0.0
"Line.LN81354563-2"          1        0.0        0.0        0.0        0.0     0.0     0.0        0.0        0.0        0.0        0.0
"Line.LN81354563-2"          2        0.0        0.0        0.0        0.0     0.0     0.0
"Line.LN5866260-1"           1        0.0        0.0        0.0        0.0     0.0     0.0        0.0        0.0        0.0        0.0
"Line.LN5866260-1"           2        0.0        0.0        0.0        0.0     0.0     0.0
"Line.LN6018243-1"           1        0.0        0.0        0.0        0.0     0.0     0.0        0.0        0.0        0.0        0.0
"Line.LN6018243-1"           2        0.0        0.0        0.0        0.0     0.0     0.0
"Line.LN5928743-3"           1        0.0        0.0        0.0        0.0     0.0     0.0        0.0        0.0        0.0        0.0
"Line.LN5928743-3"           2        0.0        0.0        0.0        0.0     0.0     0.0
"Line.LN5957501-1"           1        0.0        0.0        0.0        0.0     0.0     0.0        0.0        0.0        0.0        0.0
"Line.LN5957501-1"           2        0.0        0.0        0.0        0.0     0.0     0.0
"Line.LN6379357-1"           1        0.0        0.0        0.0        0.0     0.0     0.0        0.0        0.0        0.0        0.0
"Line.LN6379357-1"           2        0.0        0.0        0.0        0.0     0.0     0.0
"Line.LN6291252-2"           1     1273.1     -611.4        0.8        0.8    -0.4     1.9        0.0        0.0        0.0        0.0
"Line.LN6291252-2"           2    -1273.0      611.5       -0.8       -0.8     0.4    -1.9
"Line.LN6440002-3"           1        0.0        0.0        0.0        0.0     0.0     0.0        0.0        0.0        0.0        0.0
"Line.LN6440002-3"           2        0.0        0.0        0.0        0.0     0.0     0.0
"Line.LN6076346-1"           1      341.8      104.4       -5.9       -6.4     7.4    -3.5        0.0        0.0        0.0        0.0
"Line.LN6076346-1"           2     -341.6     -104.4        6.0        6.5    -7.3     3.6
"Line.LN8978752-1"           1       35.9       12.5        0.0        0.0    -0.0     0.0        0.0        0.0        0.0        0.0
"Line.LN8978752-1"           2      -35.9      -12.5       -0.0       -0.0     0.0    -0.0
"Line.LN5621834-1"           1        0.0        0.0        0.0        0.0     0.0     0.0        0.0        0.0        0.0        0.0
"Line.LN5621834-1"           2        0.0        0.0        0.0        0.0     0.0     0.0
"Line.LN6108123-1"           1        0.0        0.0        0.0        0.0     0.0     0.0        0.0        0.0        0.0        0.0
"Line.LN6108123-1"           2        0.0        0.0        0.0        0.0     0.0     0.0
"Line.LN6505952-4"           1        0.0        0.0        0.0        0.0     0.0     0.0        0.0        0.0        0.0        0.0
"Line.LN6505952-4"           2        0.0        0.0        0.0        0.0     0.0     0.0
"Line.LN5835159-1"           1        0.0        0.0        0.0        0.0     0.0     0.0        0.0        0.0        0.0        0.0
"Line.LN5835159-1"           2        0.0        0.0        0.0        0.0     0.0     0.0
"Line.LN5698090-2"           1        0.0        0.0        0.0        0.0     0.0     0.0        0.0        0.0        0.0        0.0
"Line.LN5698090-2"           2        0.0        0.0        0.0        0.0     0.0     0.0
"Line.LN5714050-1"           1        0.0        0.0        0.0        0.0     0.0     0.0        0.0        0.0        0.0        0.0
"Line.LN5714050-1"           2        0.0        0.0        0.0        0.0     0.0     0.0
"Line.LN5502529-1"           1        0.0        0.0        0.0        0.0     0.0     0.0        0.0        0.0        0.0        0.0
"Line.LN5502529-1"           2        0.0        0.0        0.0        0.0     0.0     0.0
"Line.LN5594236-1"           1      446.1     -510.4        0.7        1.0     0.6     4.8        0.0        0.0        0.0        0.0
"Line.LN5594236-1"           2     -446.1      510.4       -0.7       -1.0    -0.5    -4.8
"Line.LN5593248-1"           1        0.0        0.0        0.0        0.0     0.0     0.0        0.0        0.0        0.0        0.0
"Line.LN5593248-1"           2        0.0        0.0        0.0        0.0     0.0     0.0
"Line.LN5865272-1"           1      276.8       76.5       -1.2       -0.5     0.1    -0.7        0.0        0.0        0.0        0.0
"Line.LN5865272-1"           2     -276.8      -76.5        1.2        0.5    -0.0     0.8
"Line.LN5924696-3"           1        0.0        0.0        0.0        0.0     0.0     0.0        0.0        0.0        0.0        0.0
"Line.LN5924696-3"           2        0.0        0.0        0.0        0.0     0.0     0.0
"Line.LN5589096-1"           1        0.0        0.0        0.0        0.0     0.0     0.0        0.0        0.0        0.0        0.0
"Line.LN5589096-1"           2        0.0        0.0        0.0        0.0     0.0     0.0
"Line.LN6017295-1"           1        0.0        0.0        0.0        0.0     0.0     0.0        0.0        0.0        0.0        0.0
"Line.LN6017295-1"           2        0.0        0.0        0.0        0.0     0.0     0.0
"Line.LN5970852-1"           1        0.0        0.0        0.0        0.0     0.0     0.0        0.0        0.0        0.0        0.0
"Line.LN5970852-1"           2        0.0        0.0        0.0        0.0     0.0     0.0
"Line.LN5683820-1"           1        0.0        0.0        0.0        0.0     0.0     0.0        0.0        0.0        0.0        0.0
"Line.LN5683820-1"           2        0.0        0.0        0.0        0.0     0.0     0.0
"Line.LN6286966-3"           1        0.0        0.0        0.0        0.0     0.0     0.0        0.0        0.0        0.0        0.0
"Line.LN6286966-3"           2        0.0        0.0        0.0        0.0     0.0     0.0
"Line.LN6167715-1"           1        0.0        0.0        0.0        0.0     0.0     0.0        0.0        0.0        0.0        0.0
"Line.LN6167715-1"           2        0.0        0.0        0.0        0.0     0.0     0.0
"Line.LN6108140-2"           1        0.0        0.0        0.0        0.0     0.0     0.0        0.0        0.0        0.0        0.0
"Line.LN6108140-2"           2        0.0        0.0        0.0        0.0     0.0     0.0
"Line.LN6228279-1"           1        0.0        0.0        0.0        0.0     0.0     0.0        0.0        0.0        0.0        0.0
"Line.LN6228279-1"           2        0.0        0.0        0.0        0.0     0.0     0.0
"Line.LN5803264-2"           1        0.0        0.0        0.0        0.0     0.0     0.0        0.0        0.0        0.0        0.0
"Line.LN5803264-2"           2        0.0        0.0        0.0        0.0     0.0     0.0
"Line.LN6132680-1"           1      389.1      116.2       -5.0       -5.9     7.3    -2.9        0.0        0.0        0.0        0.0
"Line.LN6132680-1"           2     -389.0     -116.2        5.1        5.9    -7.2     2.9
...